Version 4
SHEET 1 880 680
WIRE -336 -64 -336 -96
WIRE -224 -64 -224 -96
WIRE 352 -16 352 -48
WIRE -336 48 -336 16
WIRE -224 48 -224 16
WIRE 240 96 208 96
WIRE 352 96 352 64
WIRE 352 96 320 96
WIRE 432 96 352 96
WIRE 592 96 496 96
WIRE 624 96 592 96
WIRE 592 128 592 96
WIRE 352 144 352 96
WIRE -80 192 -144 192
WIRE -32 192 -80 192
WIRE 80 192 32 192
WIRE 208 192 208 96
WIRE 208 192 160 192
WIRE 288 192 208 192
WIRE -80 224 -80 192
WIRE 208 224 208 192
WIRE 592 240 592 208
WIRE 352 272 352 240
WIRE -80 336 -80 304
WIRE 208 336 208 304
FLAG 352 -48 V+
IOPIN 352 -48 In
FLAG 208 336 0
FLAG -144 192 Input
IOPIN -144 192 In
FLAG -336 48 0
FLAG -224 48 0
FLAG -336 -96 V+
IOPIN -336 -96 Out
FLAG -224 -96 Input
IOPIN -224 -96 Out
FLAG -80 336 0
FLAG 592 240 0
FLAG 624 96 Output
IOPIN 624 96 Out
FLAG 352 272 0
SYMBOL npn 288 144 R0
SYMATTR InstName Q1
SYMATTR Value BC817
SYMBOL res 192 208 R0
SYMATTR InstName R1
SYMATTR Value 11k
SYMBOL cap 32 176 R90
WINDOW 0 0 32 VBottom 2
WINDOW 3 32 32 VTop 2
SYMATTR InstName C1
SYMATTR Value 100µ
SYMBOL voltage -336 -80 R0
WINDOW 123 0 0 Left 0
WINDOW 39 0 0 Left 0
SYMATTR InstName V1
SYMATTR Value 12V
SYMBOL voltage -224 -80 R0
WINDOW 123 24 124 Left 2
WINDOW 39 0 0 Left 0
SYMATTR Value2 AC 100mV
SYMATTR InstName V2
SYMATTR Value SINE(0 100mV {freq})
SYMBOL res -64 320 R180
WINDOW 0 36 76 Left 2
WINDOW 3 36 40 Left 2
SYMATTR InstName R2
SYMATTR Value 100k
SYMBOL res 576 112 R0
WINDOW 3 36 68 Left 2
SYMATTR Value 1Meg
SYMATTR InstName Rload1
SYMBOL cap 496 80 R90
WINDOW 0 0 32 VBottom 2
WINDOW 3 32 32 VTop 2
SYMATTR InstName C2
SYMATTR Value 1000µ
SYMBOL res 336 -32 R0
SYMATTR InstName R5
SYMATTR Value 10k
SYMBOL res 336 80 R90
WINDOW 0 0 56 VBottom 2
WINDOW 3 32 56 VTop 2
SYMATTR InstName R3
SYMATTR Value 100k
SYMBOL res 176 176 R90
WINDOW 0 0 56 VBottom 2
WINDOW 3 32 56 VTop 2
SYMATTR InstName R4
SYMATTR Value 22k
TEXT -384 -256 Left 2 !.tran 0 10ms 0 1u
TEXT -384 -280 Left 2 !.options plotwinsize=0
TEXT -384 -304 Left 2 !.four {freq} 10 v(output)
TEXT -384 -328 Left 2 !.param freq=1k
